
Usage: chemkinToFoam [OPTIONS] <CHEMKINFile> <CHEMKINThermodynamicsFile> <FOAMChemistryFile> <FOAMThermodynamicsFile>
options:
  -case <dir>       specify alternate case directory, default is the cwd
  -newFormat        read Chemkin thermo file in new format
  -noFunctionObjects
                    do not execute functionObjects
  -parallel         run in parallel
  -roots <(dir1 .. dirN)>
                    slave root directories for distributed running
  -srcDoc           display source code in browser
  -doc              display application documentation in browser
  -help             print the usage

Using: OpenFOAM-2.4.x (see www.OpenFOAM.org)
Build: 2.4.x-2b147f41daf9



--> FOAM FATAL ERROR: 
Wrong number of arguments, expected 4 found 5


FOAM exiting

